!<><><><><><><><><><><><><><><><><><><><><><><><><><><><><><><><><><><><><!
!  Reduced version of GRI-MECH 1.2. 19 species ( + N2, AR); 84 reactions. !
!                                 PennState Dec, 1994                     !
!<><><><><><><><><><><><><><><><><><><><><><><><><><><><><><><><><><><><><!
ELEMENTS
O  H  C  N  AR
END
SPECIES
CO2    N2     AR     H2O
END
TRANS ALL
CO2                1   244.000     3.763     0.000     2.650     2.100
N2                 1    97.530     3.621     0.000     1.760     4.000
AR                 0   136.500     3.330     0.000     0.000     0.000
H2O                2   572.400     2.605     1.844     0.000     4.000
END
REACTIONS
END
